This is my sample text file.
Hiiii.
hellooo.
Happy New Year...!
New line.
